Version 4
SHEET 1 1112 936
WIRE 160 -992 -80 -992
WIRE 464 -992 240 -992
WIRE 112 -880 64 -880
WIRE 192 -880 112 -880
WIRE 64 -832 64 -880
WIRE 272 -720 224 -720
WIRE 192 -688 192 -880
WIRE 224 -688 224 -720
WIRE 272 -688 272 -720
WIRE -272 -640 -352 -640
WIRE -80 -640 -80 -992
WIRE -80 -640 -192 -640
WIRE 160 -640 -80 -640
WIRE -352 -608 -352 -640
WIRE 464 -608 464 -992
WIRE 464 -608 320 -608
WIRE 544 -608 464 -608
WIRE 672 -608 624 -608
WIRE 864 -608 672 -608
WIRE 992 -608 864 -608
WIRE 80 -576 -16 -576
WIRE 160 -576 80 -576
WIRE 864 -576 864 -608
WIRE 992 -576 992 -608
WIRE -16 -528 -16 -576
WIRE 192 -496 192 -528
WIRE 864 -480 864 -512
WIRE 944 -480 864 -480
WIRE 992 -480 992 -496
WIRE 992 -480 944 -480
WIRE 944 -464 944 -480
WIRE 176 -304 -64 -304
WIRE 480 -304 256 -304
WIRE 128 -192 80 -192
WIRE 208 -192 128 -192
WIRE 80 -144 80 -192
WIRE 288 -32 240 -32
WIRE 208 0 208 -192
WIRE 240 0 240 -32
WIRE 288 0 288 -32
WIRE -256 48 -336 48
WIRE -64 48 -64 -304
WIRE -64 48 -176 48
WIRE 176 48 -64 48
WIRE -336 80 -336 48
WIRE 480 80 480 -304
WIRE 480 80 336 80
WIRE 560 80 480 80
WIRE 688 80 640 80
WIRE 880 80 688 80
WIRE 1008 80 880 80
WIRE 96 112 0 112
WIRE 176 112 96 112
WIRE 880 112 880 80
WIRE 1008 112 1008 80
WIRE 0 160 0 112
WIRE 208 192 208 160
WIRE 880 208 880 176
WIRE 960 208 880 208
WIRE 1008 208 1008 192
WIRE 1008 208 960 208
WIRE 960 224 960 208
FLAG 80 -64 0
FLAG 240 160 0
FLAG 960 224 0
FLAG 0 240 0
FLAG -336 80 0
FLAG 208 272 0
FLAG 96 112 DAC
FLAG 688 80 HV_Out
FLAG 128 -192 HV_In
FLAG 64 -752 0
FLAG 224 -528 0
FLAG 944 -464 0
FLAG -16 -448 0
FLAG -352 -608 0
FLAG 192 -416 0
FLAG 80 -576 DAC
FLAG 672 -608 HV_Out
FLAG 112 -880 HV_In
SYMBOL OpAmps\\LTC6090 240 80 R0
SYMATTR InstName U1
SYMBOL voltage 80 -160 R0
WINDOW 123 0 0 Left 0
WINDOW 39 0 0 Left 0
SYMATTR InstName V1
SYMATTR Value 65
SYMBOL res 656 64 R90
WINDOW 0 0 56 VBottom 2
WINDOW 3 32 56 VTop 2
SYMATTR InstName R1
SYMATTR Value 49
SYMBOL cap 864 112 R0
SYMATTR InstName C1
SYMATTR Value 2.2µ
SYMBOL res 1024 208 R180
WINDOW 0 36 76 Left 2
WINDOW 3 36 40 Left 2
SYMATTR InstName R2
SYMATTR Value 11k
SYMBOL voltage 0 144 R0
WINDOW 123 0 0 Left 0
WINDOW 39 0 0 Left 0
WINDOW 3 -149 395 Left 2
SYMATTR InstName V5
SYMATTR Value PWL(0 0 0.01 0.5 0.02 1 0.03 1.5 0.04 2 0.05 2.5 0.06 3 0.07 3.5 0.08 4)
SYMBOL res 272 -320 R90
WINDOW 0 0 56 VBottom 2
WINDOW 3 32 56 VTop 2
SYMATTR InstName R3
SYMATTR Value 82k
SYMBOL res -160 32 R90
WINDOW 0 0 56 VBottom 2
WINDOW 3 32 56 VTop 2
SYMATTR InstName R4
SYMATTR Value 3.9k
SYMBOL voltage 208 176 R0
WINDOW 123 0 0 Left 0
WINDOW 39 0 0 Left 0
SYMATTR InstName V2
SYMATTR Value -5
SYMBOL OpAmps\\LTC6090 224 -608 R0
SYMATTR InstName U2
SYMBOL voltage 64 -848 R0
WINDOW 123 0 0 Left 0
WINDOW 39 0 0 Left 0
SYMATTR InstName V3
SYMATTR Value 65
SYMBOL res 640 -624 R90
WINDOW 0 0 56 VBottom 2
WINDOW 3 32 56 VTop 2
SYMATTR InstName R5
SYMATTR Value 49
SYMBOL cap 848 -576 R0
SYMATTR InstName C2
SYMATTR Value 2.2µ
SYMBOL res 1008 -480 R180
WINDOW 0 36 76 Left 2
WINDOW 3 36 40 Left 2
SYMATTR InstName R6
SYMATTR Value 11k
SYMBOL voltage -16 -544 R0
WINDOW 123 0 0 Left 0
WINDOW 39 0 0 Left 0
WINDOW 3 -133 1056 Left 2
SYMATTR InstName V4
SYMATTR Value PWL(0 0 0.01 0.5 0.02 1 0.03 1.5 0.04 2 0.05 2.5 0.06 3 0.07 3.5 0.08 4)
SYMBOL res 256 -1008 R90
WINDOW 0 0 56 VBottom 2
WINDOW 3 32 56 VTop 2
SYMATTR InstName R7
SYMATTR Value 82k
SYMBOL res -176 -656 R90
WINDOW 0 0 56 VBottom 2
WINDOW 3 32 56 VTop 2
SYMATTR InstName R8
SYMATTR Value 3.9k
SYMBOL voltage 192 -512 R0
WINDOW 123 0 0 Left 0
WINDOW 39 0 0 Left 0
SYMATTR InstName V6
SYMATTR Value -5
TEXT -152 568 Left 2 !.tran 0.1
TEXT 248 232 Left 2 ;Negative Charge Pump
TEXT -64 -320 Left 2 ;Feedback
TEXT 896 56 Left 2 ;LoadSim
TEXT 232 -456 Left 2 ;Negative Charge Pump
TEXT -80 -1008 Left 2 ;Feedback
TEXT 880 -632 Left 2 ;LoadSim
