Version 4
SHEET 1 1248 680
WIRE -224 112 -224 32
WIRE -224 112 -304 112
WIRE -176 112 -224 112
WIRE -64 112 -96 112
WIRE -16 112 -16 64
WIRE -16 112 -64 112
WIRE 80 112 -16 112
WIRE 464 112 368 112
WIRE 512 112 464 112
WIRE 608 112 512 112
WIRE -304 176 -304 112
WIRE -16 208 -16 112
WIRE 80 208 -16 208
WIRE 464 208 464 112
WIRE 464 208 368 208
WIRE 224 288 224 272
FLAG 512 176 0
FLAG 608 192 0
FLAG 224 288 0
FLAG -304 256 0
FLAG -224 176 0
FLAG -64 176 0
FLAG -16 64 V_output
FLAG -224 32 V_Input
SYMBOL PowerProducts\\LT1529-5 224 160 R0
WINDOW 3 37 100 Left 2
SYMATTR InstName U1
SYMBOL cap 496 112 R0
SYMATTR InstName C1
SYMATTR Value 47µ
SYMBOL res 592 96 R0
SYMATTR InstName R1
SYMATTR Value 5
SYMBOL bv -304 160 R0
WINDOW 3 -339 140 Left 2
SYMATTR InstName B1
SYMATTR Value V=5.5 + 50m*sin(2*pi*100k*time) + 10m*sin(2*pi*500k*time)
SYMBOL ind -80 96 R90
WINDOW 0 5 56 VBottom 2
WINDOW 3 32 56 VTop 2
SYMATTR InstName L1
SYMATTR Value 10µ
SYMATTR SpiceLine Ipk=3
SYMBOL cap -240 112 R0
SYMATTR InstName C2
SYMATTR Value 22µ
SYMATTR SpiceLine Rser=0.05
SYMBOL cap -80 112 R0
SYMATTR InstName C3
SYMATTR Value 100µ
SYMATTR SpiceLine Rser=0.05
TEXT -344 424 Left 2 !.tran 0 0.5 0 10u
TEXT -344 400 Left 2 !.meas TRAN NOISE_output RMS (V(v_output)-5.5)
TEXT -344 376 Left 2 !.meas TRAN NOISE_RMS_input RMS (V(v_input)-5.5)
