Version 4
SHEET 1 880 680
WIRE 0 -32 -128 -32
WIRE 128 -32 0 -32
WIRE 160 -32 128 -32
WIRE 288 -32 240 -32
WIRE 384 -32 288 -32
WIRE 480 -32 448 -32
WIRE 624 -32 480 -32
WIRE 128 16 128 -32
WIRE 288 16 288 -32
WIRE 480 16 480 -32
WIRE 0 128 0 -32
WIRE 48 128 0 128
WIRE 480 128 480 96
WIRE 480 128 368 128
WIRE 480 144 480 128
WIRE 128 256 128 240
WIRE 288 288 288 240
WIRE 480 288 480 224
WIRE 480 288 288 288
WIRE 288 320 288 288
WIRE 288 320 128 320
WIRE 288 368 288 320
FLAG -128 48 0
FLAG 0 -96 0
FLAG 624 48 0
FLAG 288 368 0
FLAG 480 -96 0
SYMBOL PowerProducts\\LT8330 208 128 R0
SYMATTR InstName U1
SYMBOL voltage -128 -48 R0
WINDOW 123 0 0 Left 0
WINDOW 39 0 0 Left 0
SYMATTR InstName V1
SYMATTR Value 3.3
SYMBOL cap -16 -96 R0
SYMATTR InstName C1
SYMATTR Value 4.7µ
SYMBOL ind 144 -16 R270
WINDOW 0 32 56 VTop 2
WINDOW 3 5 56 VBottom 2
SYMATTR InstName L1
SYMATTR Value 0.68µ
SYMBOL schottky 384 -16 R270
WINDOW 0 32 32 VTop 2
WINDOW 3 85 -37 VBottom 2
SYMATTR InstName D1
SYMATTR Value PMEG6010AED
SYMBOL cap 464 -96 R0
SYMATTR InstName C2
SYMATTR Value 4.7µ
SYMBOL res 608 -48 R0
SYMATTR InstName R1
SYMATTR Value 1k
SYMBOL res 464 0 R0
SYMATTR InstName R2
SYMATTR Value 20k
SYMBOL res 464 128 R0
SYMATTR InstName R3
SYMATTR Value 24.9k
SYMBOL cap 112 256 R0
SYMATTR InstName C3
SYMATTR Value 1µ
TEXT -160 392 Left 2 !.tran 2
