Version 4
SHEET 1 1232 680
WIRE 960 -32 960 -48
WIRE 848 0 592 0
WIRE 960 80 960 48
WIRE 1056 80 960 80
WIRE 592 144 592 0
WIRE 688 144 592 144
WIRE 848 160 848 0
WIRE 848 160 752 160
WIRE 912 160 848 160
WIRE 592 176 464 176
WIRE 688 176 592 176
WIRE 848 208 848 160
WIRE 960 208 960 176
WIRE 720 224 720 192
WIRE 848 320 848 288
WIRE 960 320 960 288
FLAG 960 -128 0
FLAG 848 320 0
FLAG 720 48 0
FLAG 720 224 0
FLAG 592 256 0
FLAG 960 320 0
FLAG 1056 80 SiPM_Voltage
FLAG 464 176 V_ref
SYMBOL nmos 912 80 R0
SYMATTR InstName M1
SYMATTR Value BSS123
SYMBOL OpAmps\\LT6003 720 160 R0
SYMATTR InstName U1
SYMBOL voltage 960 -32 R180
WINDOW 0 24 96 Left 2
WINDOW 3 24 16 Left 2
WINDOW 123 0 0 Left 0
WINDOW 39 0 0 Left 0
SYMATTR InstName V1
SYMATTR Value 60
SYMBOL voltage 720 144 R180
WINDOW 0 24 96 Left 2
WINDOW 3 41 41 Left 2
WINDOW 123 0 0 Left 0
WINDOW 39 0 0 Left 0
SYMATTR InstName V2
SYMATTR Value 5
SYMBOL voltage 592 160 R0
WINDOW 0 24 96 Left 2
WINDOW 3 -241 64 Left 2
WINDOW 123 0 0 Left 0
WINDOW 39 0 0 Left 0
SYMATTR InstName V3
SYMATTR Value PULSE(0 5 0 1 0 0)
SYMBOL res 944 -48 R0
SYMATTR InstName R1
SYMATTR Value 3k
SYMBOL res 832 192 R0
SYMATTR InstName R2
SYMATTR Value 10k
SYMBOL res 944 192 R0
SYMATTR InstName R3
SYMATTR Value 1k
TEXT 688 304 Left 2 !.tran 1
